*HEADING
cubit(three_body_mesh_0.0_0.1.inp): 06/28/2025: 17:55:38
version: 2025.3
**
********************************** P A R T S **********************************
*PART, NAME=Part-Default
**
********************************** N O D E S **********************************
*NODE, NSET=ALLNODES
       1,   -5.000000e-01,   -5.000000e-01,    2.000000e-02
       2,    5.000000e-01,   -5.000000e-01,    2.000000e-02
       3,   -4.000000e-01,   -5.000000e-01,    2.000000e-02
       4,   -3.000000e-01,   -5.000000e-01,    2.000000e-02
       5,   -2.000000e-01,   -5.000000e-01,    2.000000e-02
       6,   -1.000000e-01,   -5.000000e-01,    2.000000e-02
       7,    0.000000e+00,   -5.000000e-01,    2.000000e-02
       8,    1.000000e-01,   -5.000000e-01,    2.000000e-02
       9,    2.000000e-01,   -5.000000e-01,    2.000000e-02
      10,    3.000000e-01,   -5.000000e-01,    2.000000e-02
      11,    4.000000e-01,   -5.000000e-01,    2.000000e-02
      12,   -5.000000e-01,    5.000000e-01,    2.000000e-02
      13,   -5.000000e-01,    4.000000e-01,    2.000000e-02
      14,   -5.000000e-01,    3.000000e-01,    2.000000e-02
      15,   -5.000000e-01,    2.000000e-01,    2.000000e-02
      16,   -5.000000e-01,    1.000000e-01,    2.000000e-02
      17,   -5.000000e-01,    0.000000e+00,    2.000000e-02
      18,   -5.000000e-01,   -1.000000e-01,    2.000000e-02
      19,   -5.000000e-01,   -2.000000e-01,    2.000000e-02
      20,   -5.000000e-01,   -3.000000e-01,    2.000000e-02
** ... 2642 like lines cut
**
********************************** E L E M E N T S ****************************
*ELEMENT, TYPE=C3D8R, ELSET=EB3
       1,    1563,    1581,    1690,    1664,    1572,    1662,    1934,    1844
       2,    1581,    1580,    1689,    1690,    1662,    1661,    1935,    1934
       3,    1580,    1579,    1688,    1689,    1661,    1660,    1936,    1935
       4,    1579,    1578,    1687,    1688,    1660,    1659,    1937,    1936
       5,    1578,    1577,    1686,    1687,    1659,    1658,    1938,    1937
       6,    1577,    1576,    1685,    1686,    1658,    1657,    1939,    1938
       7,    1576,    1575,    1684,    1685,    1657,    1656,    1940,    1939
       8,    1575,    1574,    1683,    1684,    1656,    1655,    1941,    1940
       9,    1574,    1573,    1682,    1683,    1655,    1654,    1942,    1941
      10,    1573,    1453,    1472,    1682,    1654,    1462,    1562,    1942
      11,    1664,    1690,    1699,    1665,    1844,    1934,    1943,    1845
      12,    1690,    1689,    1698,    1699,    1934,    1935,    1944,    1943
      13,    1689,    1688,    1697,    1698,    1935,    1936,    1945,    1944
      14,    1688,    1687,    1696,    1697,    1936,    1937,    1946,    1945
      15,    1687,    1686,    1695,    1696,    1937,    1938,    1947,    1946
      16,    1686,    1685,    1694,    1695,    1938,    1939,    1948,    1947
      17,    1685,    1684,    1693,    1694,    1939,    1940,    1949,    1948
      18,    1684,    1683,    1692,    1693,    1940,    1941,    1950,    1949
      19,    1683,    1682,    1691,    1692,    1941,    1942,    1951,    1950
      20,    1682,    1472,    1471,    1691,    1942,    1562,    1561,    1951
** ... 980 like lines cut
*ELEMENT, TYPE=C3D8R, ELSET=EB4
    1001,    1343,      22,      23,    1362,    1344,      40,     113,    1452
    1002,    1362,      23,      24,    1361,    1452,     113,     114,    1451
    1003,    1361,      24,      25,    1360,    1451,     114,     115,    1450
    1004,    1360,      25,      26,    1359,    1450,     115,     116,    1449
    1005,    1359,      26,      27,    1358,    1449,     116,     117,    1448
    1006,    1358,      27,      28,    1357,    1448,     117,     118,    1447
    1007,    1357,      28,      29,    1356,    1447,     118,     119,    1446
    1008,    1356,      29,      30,    1355,    1446,     119,     120,    1445
    1009,    1355,      30,      31,    1354,    1445,     120,     121,    1444
    1010,    1354,      31,      12,    1353,    1444,     121,      13,    1371
    1011,    1344,      40,     113,    1452,    1345,      39,     104,    1443
    1012,    1452,     113,     114,    1451,    1443,     104,     105,    1442
    1013,    1451,     114,     115,    1450,    1442,     105,     106,    1441
    1014,    1450,     115,     116,    1449,    1441,     106,     107,    1440
    1015,    1449,     116,     117,    1448,    1440,     107,     108,    1439
    1016,    1448,     117,     118,    1447,    1439,     108,     109,    1438
    1017,    1447,     118,     119,    1446,    1438,     109,     110,    1437
    1018,    1446,     119,     120,    1445,    1437,     110,     111,    1436
    1019,    1445,     120,     121,    1444,    1436,     111,     112,    1435
    1020,    1444,     121,      13,    1371,    1435,     112,      14,    1370
** ... 80 like lines cut
*ELEMENT, TYPE=C3D8R, ELSET=EB1
    1101,     232,     250,     423,     342,     233,     331,     603,     513
    1102,     250,     249,     424,     423,     331,     330,     604,     603
    1103,     249,     248,     425,     424,     330,     329,     605,     604
    1104,     248,     247,     426,     425,     329,     328,     606,     605
    1105,     247,     246,     427,     426,     328,     327,     607,     606
    1106,     246,     245,     428,     427,     327,     326,     608,     607
    1107,     245,     244,     429,     428,     326,     325,     609,     608
    1108,     244,     243,     430,     429,     325,     324,     610,     609
    1109,     243,     242,     431,     430,     324,     323,     611,     610
    1110,     242,     122,     141,     431,     323,     123,     231,     611
    1111,     342,     423,     414,     343,     513,     603,     612,     514
    1112,     423,     424,     415,     414,     603,     604,     613,     612
    1113,     424,     425,     416,     415,     604,     605,     614,     613
    1114,     425,     426,     417,     416,     605,     606,     615,     614
    1115,     426,     427,     418,     417,     606,     607,     616,     615
    1116,     427,     428,     419,     418,     607,     608,     617,     616
    1117,     428,     429,     420,     419,     608,     609,     618,     617
    1118,     429,     430,     421,     420,     609,     610,     619,     618
    1119,     430,     431,     422,     421,     610,     611,     620,     619
    1120,     431,     141,     140,     422,     611,     231,     230,     620
** ... 980 like lines cut
**
********************************** N O D E S E T S **********************************
*NSET, NSET=bottom-Z+
    1332,    1333,    1334,    1335,    1336,    1337,
    1338,    1339,    1340,    1341,    1342,    1343,
    1344,    1345,    1346,    1347,    1348,    1349,
    1350,    1351,    1352,    1353,    1354,    1355,
    1356,    1357,    1358,    1359,    1360,    1361,
    1362,    1363,    1364,    1365,    1366,    1367,
    1368,    1369,    1370,    1371,    1372,    1373,
    1374,    1375,    1376,    1377,    1378,    1379,
    1380,    1381,    1382,    1383,    1384,    1385,
    1386,    1387,    1388,    1389,    1390,    1391,
    1392,    1393,    1394,    1395,    1396,    1397,
    1398,    1399,    1400,    1401,    1402,    1403,
    1404,    1405,    1406,    1407,    1408,    1409,
    1410,    1411,    1412,    1413,    1414,    1415,
    1416,    1417,    1418,    1419,    1420,    1421,
    1422,    1423,    1424,    1425,    1426,    1427,
    1428,    1429,    1430,    1431,    1432,    1433,
    1434,    1435,    1436,    1437,    1438,    1439,
    1440,    1441,    1442,    1443,    1444,    1445,
    1446,    1447,    1448,    1449,    1450,    1451,
    1452,
*NSET, NSET=bottom-Y+
    1343,    1353,    1354,    1355,    1356,    1357,
    1358,    1359,    1360,    1361,    1362,    1453,
    1454,    1455,    1456,    1457,    1458,    1459,
    1460,    1461,    1462,    1463,    1464,    1465,
    1466,    1467,    1468,    1469,    1470,    1471,
    1472,    1473,    1474,    1475,    1476,    1477,
    1478,    1479,    1480,    1481,    1482,    1483,
    1484,    1485,    1486,    1487,    1488,    1489,
    1490,    1491,    1492,    1493,    1494,    1495,
    1496,    1497,    1498,    1499,    1500,    1501,
    1502,    1503,    1504,    1505,    1506,    1507,
    1508,    1509,    1510,    1511,    1512,    1513,
    1514,    1515,    1516,    1517,    1518,    1519,
    1520,    1521,    1522,    1523,    1524,    1525,
    1526,    1527,    1528,    1529,    1530,    1531,
    1532,    1533,    1534,    1535,    1536,    1537,
    1538,    1539,    1540,    1541,    1542,    1543,
    1544,    1545,    1546,    1547,    1548,    1549,
    1550,    1551,    1552,    1553,    1554,    1555,
    1556,    1557,    1558,    1559,    1560,    1561,
    1562,
*NSET, NSET=bottom-X+
    1332,    1343,    1344,    1345,    1346,    1347,
    1348,    1349,    1350,    1351,    1352,    1453,
    1454,    1455,    1456,    1457,    1458,    1459,
    1460,    1461,    1462,    1563,    1564,    1565,
    1566,    1567,    1568,    1569,    1570,    1571,
    1572,    1573,    1574,    1575,    1576,    1577,
    1578,    1579,    1580,    1581,    1582,    1583,
    1584,    1585,    1586,    1587,    1588,    1589,
    1590,    1591,    1592,    1593,    1594,    1595,
    1596,    1597,    1598,    1599,    1600,    1601,
    1602,    1603,    1604,    1605,    1606,    1607,
    1608,    1609,    1610,    1611,    1612,    1613,
    1614,    1615,    1616,    1617,    1618,    1619,
    1620,    1621,    1622,    1623,    1624,    1625,
    1626,    1627,    1628,    1629,    1630,    1631,
    1632,    1633,    1634,    1635,    1636,    1637,
    1638,    1639,    1640,    1641,    1642,    1643,
    1644,    1645,    1646,    1647,    1648,    1649,
    1650,    1651,    1652,    1653,    1654,    1655,
    1656,    1657,    1658,    1659,    1660,    1661,
    1662,
*NSET, NSET=bottom-Z-
    1453,    1463,    1464,    1465,    1466,    1467,
    1468,    1469,    1470,    1471,    1472,    1563,
    1573,    1574,    1575,    1576,    1577,    1578,
    1579,    1580,    1581,    1663,    1664,    1665,
    1666,    1667,    1668,    1669,    1670,    1671,
    1672,    1673,    1674,    1675,    1676,    1677,
    1678,    1679,    1680,    1681,    1682,    1683,
    1684,    1685,    1686,    1687,    1688,    1689,
    1690,    1691,    1692,    1693,    1694,    1695,
    1696,    1697,    1698,    1699,    1700,    1701,
    1702,    1703,    1704,    1705,    1706,    1707,
    1708,    1709,    1710,    1711,    1712,    1713,
    1714,    1715,    1716,    1717,    1718,    1719,
    1720,    1721,    1722,    1723,    1724,    1725,
    1726,    1727,    1728,    1729,    1730,    1731,
    1732,    1733,    1734,    1735,    1736,    1737,
    1738,    1739,    1740,    1741,    1742,    1743,
    1744,    1745,    1746,    1747,    1748,    1749,
    1750,    1751,    1752,    1753,    1754,    1755,
    1756,    1757,    1758,    1759,    1760,    1761,
    1762,
*NSET, NSET=bottom-Y-
    1332,    1333,    1334,    1335,    1336,    1337,
    1338,    1339,    1340,    1341,    1342,    1563,
    1564,    1565,    1566,    1567,    1568,    1569,
    1570,    1571,    1572,    1663,    1664,    1665,
    1666,    1667,    1668,    1669,    1670,    1671,
    1672,    1763,    1764,    1765,    1766,    1767,
    1768,    1769,    1770,    1771,    1772,    1773,
    1774,    1775,    1776,    1777,    1778,    1779,
    1780,    1781,    1782,    1783,    1784,    1785,
    1786,    1787,    1788,    1789,    1790,    1791,
    1792,    1793,    1794,    1795,    1796,    1797,
    1798,    1799,    1800,    1801,    1802,    1803,
    1804,    1805,    1806,    1807,    1808,    1809,
    1810,    1811,    1812,    1813,    1814,    1815,
    1816,    1817,    1818,    1819,    1820,    1821,
    1822,    1823,    1824,    1825,    1826,    1827,
    1828,    1829,    1830,    1831,    1832,    1833,
    1834,    1835,    1836,    1837,    1838,    1839,
    1840,    1841,    1842,    1843,    1844,    1845,
    1846,    1847,    1848,    1849,    1850,    1851,
    1852,
*NSET, NSET=bottom-X-
    1333,    1353,    1363,    1364,    1365,    1366,
    1367,    1368,    1369,    1370,    1371,    1463,
    1473,    1474,    1475,    1476,    1477,    1478,
    1479,    1480,    1481,    1663,    1673,    1674,
    1675,    1676,    1677,    1678,    1679,    1680,
    1681,    1763,    1764,    1765,    1766,    1767,
    1768,    1769,    1770,    1771,    1853,    1854,
    1855,    1856,    1857,    1858,    1859,    1860,
    1861,    1862,    1863,    1864,    1865,    1866,
    1867,    1868,    1869,    1870,    1871,    1872,
    1873,    1874,    1875,    1876,    1877,    1878,
    1879,    1880,    1881,    1882,    1883,    1884,
    1885,    1886,    1887,    1888,    1889,    1890,
    1891,    1892,    1893,    1894,    1895,    1896,
    1897,    1898,    1899,    1900,    1901,    1902,
    1903,    1904,    1905,    1906,    1907,    1908,
    1909,    1910,    1911,    1912,    1913,    1914,
    1915,    1916,    1917,    1918,    1919,    1920,
    1921,    1922,    1923,    1924,    1925,    1926,
    1927,    1928,    1929,    1930,    1931,    1932,
    1933,
*NSET, NSET=top-Z-
       1,       2,       3,       4,       5,       6,
       7,       8,       9,      10,      11,      12,
      13,      14,      15,      16,      17,      18,
      19,      20,      21,      22,      23,      24,
      25,      26,      27,      28,      29,      30,
      31,      32,      33,      34,      35,      36,
      37,      38,      39,      40,      41,      42,
      43,      44,      45,      46,      47,      48,
      49,      50,      51,      52,      53,      54,
      55,      56,      57,      58,      59,      60,
      61,      62,      63,      64,      65,      66,
      67,      68,      69,      70,      71,      72,
      73,      74,      75,      76,      77,      78,
      79,      80,      81,      82,      83,      84,
      85,      86,      87,      88,      89,      90,
      91,      92,      93,      94,      95,      96,
      97,      98,      99,     100,     101,     102,
     103,     104,     105,     106,     107,     108,
     109,     110,     111,     112,     113,     114,
     115,     116,     117,     118,     119,     120,
     121,
*NSET, NSET=top-Y+
      12,      22,      23,      24,      25,      26,
      27,      28,      29,      30,      31,     122,
     123,     124,     125,     126,     127,     128,
     129,     130,     131,     132,     133,     134,
     135,     136,     137,     138,     139,     140,
     141,     142,     143,     144,     145,     146,
     147,     148,     149,     150,     151,     152,
     153,     154,     155,     156,     157,     158,
     159,     160,     161,     162,     163,     164,
     165,     166,     167,     168,     169,     170,
     171,     172,     173,     174,     175,     176,
     177,     178,     179,     180,     181,     182,
     183,     184,     185,     186,     187,     188,
     189,     190,     191,     192,     193,     194,
     195,     196,     197,     198,     199,     200,
     201,     202,     203,     204,     205,     206,
     207,     208,     209,     210,     211,     212,
     213,     214,     215,     216,     217,     218,
     219,     220,     221,     222,     223,     224,
     225,     226,     227,     228,     229,     230,
     231,
*NSET, NSET=top-X-
       1,      12,      13,      14,      15,      16,
      17,      18,      19,      20,      21,     122,
     123,     124,     125,     126,     127,     128,
     129,     130,     131,     232,     233,     234,
     235,     236,     237,     238,     239,     240,
     241,     242,     243,     244,     245,     246,
     247,     248,     249,     250,     251,     252,
     253,     254,     255,     256,     257,     258,
     259,     260,     261,     262,     263,     264,
     265,     266,     267,     268,     269,     270,
     271,     272,     273,     274,     275,     276,
     277,     278,     279,     280,     281,     282,
     283,     284,     285,     286,     287,     288,
     289,     290,     291,     292,     293,     294,
     295,     296,     297,     298,     299,     300,
     301,     302,     303,     304,     305,     306,
     307,     308,     309,     310,     311,     312,
     313,     314,     315,     316,     317,     318,
     319,     320,     321,     322,     323,     324,
     325,     326,     327,     328,     329,     330,
     331,
*NSET, NSET=top-Z+
     122,     132,     133,     134,     135,     136,
     137,     138,     139,     140,     141,     232,
     242,     243,     244,     245,     246,     247,
     248,     249,     250,     332,     333,     334,
     335,     336,     337,     338,     339,     340,
     341,     342,     343,     344,     345,     346,
     347,     348,     349,     350,     351,     352,
     353,     354,     355,     356,     357,     358,
     359,     360,     361,     362,     363,     364,
     365,     366,     367,     368,     369,     370,
     371,     372,     373,     374,     375,     376,
     377,     378,     379,     380,     381,     382,
     383,     384,     385,     386,     387,     388,
     389,     390,     391,     392,     393,     394,
     395,     396,     397,     398,     399,     400,
     401,     402,     403,     404,     405,     406,
     407,     408,     409,     410,     411,     412,
     413,     414,     415,     416,     417,     418,
     419,     420,     421,     422,     423,     424,
     425,     426,     427,     428,     429,     430,
     431,
*NSET, NSET=top-Y-
       1,       2,       3,       4,       5,       6,
       7,       8,       9,      10,      11,     232,
     233,     234,     235,     236,     237,     238,
     239,     240,     241,     332,     342,     343,
     344,     345,     346,     347,     348,     349,
     350,     432,     433,     434,     435,     436,
     437,     438,     439,     440,     441,     442,
     443,     444,     445,     446,     447,     448,
     449,     450,     451,     452,     453,     454,
     455,     456,     457,     458,     459,     460,
     461,     462,     463,     464,     465,     466,
     467,     468,     469,     470,     471,     472,
     473,     474,     475,     476,     477,     478,
     479,     480,     481,     482,     483,     484,
     485,     486,     487,     488,     489,     490,
     491,     492,     493,     494,     495,     496,
     497,     498,     499,     500,     501,     502,
     503,     504,     505,     506,     507,     508,
     509,     510,     511,     512,     513,     514,
     515,     516,     517,     518,     519,     520,
     521,
*NSET, NSET=top-X+
       2,      22,      32,      33,      34,      35,
      36,      37,      38,      39,      40,     132,
     142,     143,     144,     145,     146,     147,
     148,     149,     150,     332,     333,     334,
     335,     336,     337,     338,     339,     340,
     341,     432,     433,     434,     435,     436,
     437,     438,     439,     440,     522,     523,
     524,     525,     526,     527,     528,     529,
     530,     531,     532,     533,     534,     535,
     536,     537,     538,     539,     540,     541,
     542,     543,     544,     545,     546,     547,
     548,     549,     550,     551,     552,     553,
     554,     555,     556,     557,     558,     559,
     560,     561,     562,     563,     564,     565,
     566,     567,     568,     569,     570,     571,
     572,     573,     574,     575,     576,     577,
     578,     579,     580,     581,     582,     583,
     584,     585,     586,     587,     588,     589,
     590,     591,     592,     593,     594,     595,
     596,     597,     598,     599,     600,     601,
     602,
**
********************************** P R O P E R T I E S ************************
*SOLID SECTION, ELSET=EB3, MATERIAL=Default-Steel
*SOLID SECTION, ELSET=EB4, MATERIAL=Default-Steel
*SOLID SECTION, ELSET=EB1, MATERIAL=Default-Steel
**
*END PART
**
**
**
********************************** E N D   P A R T S **********************************
**
**
********************************** A S S E M B L Y ************************************
**
*ASSEMBLY, NAME=ASSEMBLY1
**
*INSTANCE, NAME=Part-Default_1, PART=Part-Default
*END INSTANCE
**
*END ASSEMBLY
**
**
**
*MATERIAL, NAME = Default-Steel
*ELASTIC, TYPE=ISOTROPIC
2.068000e+05, 2.900000e-01
*DENSITY
7.000000e-06
*CONDUCTIVITY,TYPE=ISO
4.500000e-02
*SPECIFIC HEAT
5.000000e+02
**
**
************************************** H I S T O R Y *************************************
**
*PREPRINT
**
**************************************** S T E P 1 ***************************************
*STEP,INC=100,NAME=Default Set
**
*STATIC
1, 1, 1e-05, 1
**
**
**
**
*END STEP
